<?xml version="1.0" encoding="UTF-8"?>

<!-- generated on 2025-12-07 16:28:20.760258 by Eclipse SUMO findAllRoutes.py v1_25_0+0000-ac6c5a6752d
  options: -n testing.net.xml -o allRoutes.rou.xml -s E0,E2,-E0,-E1 -t E0.103,E1,-E0.97,-E2
-->

<routes xmlns:xsi="http://www.w3.org/2001/XMLSchema-instance" xsi:noNamespaceSchemaLocation="http://sumo.dlr.de/xsd/routes_file.xsd">
    <route id="0" edges="E0 -E2"/>
    <route id="1" edges="E0 E0.103"/>
    <route id="2" edges="E0 E1"/>
    <route id="3" edges="E2 -E0.97"/>
    <route id="4" edges="E2 E0.103"/>
    <route id="5" edges="E2 E1"/>
    <route id="6" edges="-E0 -E0.97"/>
    <route id="7" edges="-E0 -E2"/>
    <route id="8" edges="-E0 E1"/>
    <route id="9" edges="-E1 -E0.97"/>
    <route id="10" edges="-E1 -E2"/>
    <route id="11" edges="-E1 E0.103"/>
</routes>
